%chk=ala1.chk
%mem=6MW
%nproc=1
# hf/3-21g geom=connectivity

Title Card Required

0 1
 N                 -2.24620013    0.43481900    0.00000000
 H                 -1.24664027    0.40515276    0.00000000
 C                 -2.93315413    1.71063100    0.00000000
 H                 -3.55798713    1.78743400   -0.88982300
 C                 -3.81977713    1.85675300    1.23214100
 C                 -1.94267513    2.86624200    0.00000000
 H                 -3.20700413    1.79110500    2.13119600
 H                 -4.32293313    2.82331400    1.20578400
 H                 -4.56401213    1.06043100    1.24137300
 O                 -0.70574935    2.63475726    0.00000000
 H                 -2.29808724    3.87549034    0.00000000
 H                 -2.77167177   -0.41599212    0.00000000

 1 2 1.0 3 1.0 12 1.0
 2
 3 4 1.0 5 1.0 6 1.0
 4
 5 7 1.0 8 1.0 9 1.0
 6 10 2.0 11 1.0
 7
 8
 9
 10
 11
 12

