%chk=ala1.chk
%mem=6MW
%nproc=1
# hf/3-21g geom=connectivity

Title Card Required

0 1
 N                 -2.24620013    0.43481900    0.00000000
 H                 -1.24664027    0.40515276    0.00000000
 C                 -2.93315413    1.71063100    0.00000000
 H                 -3.55798713    1.78743400   -0.88982300
 C                 -3.81977713    1.85675300    1.23214100
 C                 -1.94267513    2.86624200    0.00000000
 H                 -3.20700413    1.79110500    2.13119600
 H                 -4.32293313    2.82331400    1.20578400
 H                 -4.56401213    1.06043100    1.24137300
 O                 -0.70574935    2.63475726    0.00000000
 H                 -2.29808724    3.87549034    0.00000000
 C                 -3.01864344   -0.81587334    0.00000000
 C                 -2.29708122   -2.15596043    0.00000000
 O                 -4.27648984   -0.77854131   -0.00000000
 N                 -3.24005384   -3.25614437    0.00000000
 H                 -1.67022956   -2.21402912    0.88982300
 C                 -1.39968174   -2.20207065   -1.23214100
 H                 -4.22298910   -3.07219253    0.00000000
 H                 -2.01237388   -2.13567217   -2.13119600
 H                 -0.70216813   -1.36488436   -1.20578400
 H                 -0.84217146   -3.13865847   -1.24137300
 H                 -2.90789318   -4.19936719    0.00000000

 1 2 1.0 3 1.0 12 1.0
 2
 3 4 1.0 5 1.0 6 1.0
 4
 5 7 1.0 8 1.0 9 1.0
 6 10 2.0 11 1.0
 7
 8
 9
 10
 11
 12 13 1.0 14 2.0
 13 15 1.0 16 1.0 17 1.0
 14
 15 18 1.0 22 1.0
 16
 17 19 1.0 20 1.0 21 1.0
 18
 19
 20
 21
 22

